
**** 11/18/18 21:28:48 ******* PSpice Lite (March 2016) ******* ID# 10813 ****

 MOSFET I-V CHARACTERISTICS


 ****     CIRCUIT DESCRIPTION


******************************************************************************



m1 1 2 0 0 ntype
.model ntype NMOS(VTO=1 kp=30u)
vgs 2 0 5
vds 1 0 5
.probe
.print dc i(vds)
.dc vds 0 5 0.5 vgs 0 5 1 
.end

**** 11/18/18 21:28:48 ******* PSpice Lite (March 2016) ******* ID# 10813 ****

 MOSFET I-V CHARACTERISTICS


 ****     MOSFET MODEL PARAMETERS


******************************************************************************




               ntype           
               NMOS            
       LEVEL    1            
           L  100.000000E-06 
           W  100.000000E-06 
         VTO    1            
          KP   30.000000E-06 
       GAMMA    0            
         PHI     .6          
      LAMBDA    0            
          IS   10.000000E-15 
          JS    0            
          PB     .8          
        PBSW     .8          
          CJ    0            
        CJSW    0            
        CGSO    0            
        CGDO    0            
        CGBO    0            
         TOX    0            
          XJ    0            
       UCRIT   10.000000E+03 
      DIOMOD    1            
         VFB    0            
        LETA    0            
        WETA    0            
          U0    0            
        TEMP    0            
         VDD    5            
       XPART    0            


**** 11/18/18 21:28:48 ******* PSpice Lite (March 2016) ******* ID# 10813 ****

 MOSFET I-V CHARACTERISTICS


 ****     DC TRANSFER CURVES               TEMPERATURE =   27.000 DEG C


******************************************************************************



  vds         I(vds)      

   0.000E+00   0.000E+00
   5.000E-01  -5.100E-13
   1.000E+00  -1.010E-12
   1.500E+00  -1.510E-12
   2.000E+00  -2.010E-12
   2.500E+00  -2.510E-12
   3.000E+00  -3.010E-12
   3.500E+00  -3.510E-12
   4.000E+00  -4.010E-12
   4.500E+00  -4.510E-12
   5.000E+00  -5.010E-12
   0.000E+00   0.000E+00
   5.000E-01  -5.100E-13
   1.000E+00  -1.010E-12
   1.500E+00  -1.510E-12
   2.000E+00  -2.010E-12
   2.500E+00  -2.510E-12
   3.000E+00  -3.010E-12
   3.500E+00  -3.510E-12
   4.000E+00  -4.010E-12
   4.500E+00  -4.510E-12
   5.000E+00  -5.010E-12
   0.000E+00   0.000E+00
   5.000E-01  -1.125E-05
   1.000E+00  -1.500E-05
   1.500E+00  -1.500E-05
   2.000E+00  -1.500E-05
   2.500E+00  -1.500E-05
   3.000E+00  -1.500E-05
   3.500E+00  -1.500E-05
   4.000E+00  -1.500E-05
   4.500E+00  -1.500E-05
   5.000E+00  -1.500E-05
   0.000E+00   0.000E+00
   5.000E-01  -2.625E-05
   1.000E+00  -4.500E-05
   1.500E+00  -5.625E-05
   2.000E+00  -6.000E-05
   2.500E+00  -6.000E-05
   3.000E+00  -6.000E-05
   3.500E+00  -6.000E-05
   4.000E+00  -6.000E-05
   4.500E+00  -6.000E-05
   5.000E+00  -6.000E-05
   0.000E+00   0.000E+00
   5.000E-01  -4.125E-05
   1.000E+00  -7.500E-05
   1.500E+00  -1.013E-04
   2.000E+00  -1.200E-04
   2.500E+00  -1.313E-04
   3.000E+00  -1.350E-04
   3.500E+00  -1.350E-04
   4.000E+00  -1.350E-04
   4.500E+00  -1.350E-04
   5.000E+00  -1.350E-04
   0.000E+00   0.000E+00
   5.000E-01  -5.625E-05
   1.000E+00  -1.050E-04
   1.500E+00  -1.463E-04
   2.000E+00  -1.800E-04
   2.500E+00  -2.063E-04
   3.000E+00  -2.250E-04
   3.500E+00  -2.363E-04
   4.000E+00  -2.400E-04
   4.500E+00  -2.400E-04
   5.000E+00  -2.400E-04




          JOB CONCLUDED

**** 11/18/18 21:28:48 ******* PSpice Lite (March 2016) ******* ID# 10813 ****

 MOSFET I-V CHARACTERISTICS


 ****     JOB STATISTICS SUMMARY


******************************************************************************



  Total job time (using Solver 1)   =         .13

**** 11/18/18 21:28:48 ******* PSpice Lite (March 2016) ******* ID# 10813 ****

  


 ****     CIRCUIT DESCRIPTION


******************************************************************************



