
**** 11/18/18 21:34:43 ******* PSpice Lite (March 2016) ******* ID# 10813 ****

 TRANSIENT SIMULATION


 ****     CIRCUIT DESCRIPTION


******************************************************************************



* CMOS INVERTER
VIN 1 0 PULSE(0 5 0 1P 1P 5N 10N)
VDD 3 0 5
M2 2 1 3 3 PTYPE W=5U |= 2.5U
M1 2 1 0 0 NTYPE W = 5U |= 5U 

.MODEL PTYPE PMOS(KP=15U VTO=-1)
.MODEL NTYPE NMOS(KP=30U VTO=1) 

.PROBE
.TRAN 1N 20N 
.END

**** 11/18/18 21:34:43 ******* PSpice Lite (March 2016) ******* ID# 10813 ****

 TRANSIENT SIMULATION


 ****     MOSFET MODEL PARAMETERS


******************************************************************************




               PTYPE           NTYPE           
               PMOS            NMOS            
       LEVEL    1               1            
           L  100.000000E-06  100.000000E-06 
           W  100.000000E-06  100.000000E-06 
         VTO   -1               1            
          KP   15.000000E-06   30.000000E-06 
       GAMMA    0               0            
         PHI     .6              .6          
      LAMBDA    0               0            
          IS   10.000000E-15   10.000000E-15 
          JS    0               0            
          PB     .8              .8          
        PBSW     .8              .8          
          CJ    0               0            
        CJSW    0               0            
        CGSO    0               0            
        CGDO    0               0            
        CGBO    0               0            
         TOX    0               0            
          XJ    0               0            
       UCRIT   10.000000E+03   10.000000E+03 
      DIOMOD    1               1            
         VFB    0               0            
        LETA    0               0            
        WETA    0               0            
          U0    0               0            
        TEMP    0               0            
         VDD    5               5            
       XPART    0               0            


**** 11/18/18 21:34:43 ******* PSpice Lite (March 2016) ******* ID# 10813 ****

 TRANSIENT SIMULATION


 ****     INITIAL TRANSIENT SOLUTION       TEMPERATURE =   27.000 DEG C


******************************************************************************



 NODE   VOLTAGE     NODE   VOLTAGE     NODE   VOLTAGE     NODE   VOLTAGE


(    1)    0.0000  (    2)    5.0000  (    3)    5.0000  




    VOLTAGE SOURCE CURRENTS
    NAME         CURRENT

    VIN          0.000E+00
    VDD         -5.010E-12

    TOTAL POWER DISSIPATION   2.51E-11  WATTS



          JOB CONCLUDED

**** 11/18/18 21:34:43 ******* PSpice Lite (March 2016) ******* ID# 10813 ****

 TRANSIENT SIMULATION


 ****     JOB STATISTICS SUMMARY


******************************************************************************



  Total job time (using Solver 1)   =         .02

**** 11/18/18 21:34:43 ******* PSpice Lite (March 2016) ******* ID# 10813 ****

  


 ****     CIRCUIT DESCRIPTION


******************************************************************************



